XX01ZVNS2B-x0969_0B
     RDKit          3D

 10 11  0  0  0  0  0  0  0  0999 V2000
  -10.2000    4.3430  -18.4310 C   0  0  0  0  0  0  0  0  0  0  0  0
   -9.1050    4.8820  -17.5700 C   0  0  0  0  0  0  0  0  0  0  0  0
   -7.8510    5.2190  -17.9870 C   0  0  0  0  0  0  0  0  0  0  0  0
   -7.1850    5.6840  -16.9120 N   0  0  0  0  0  0  0  0  0  0  0  0
   -7.9570    5.6600  -15.7860 N   0  0  0  0  0  0  0  0  0  0  0  0
   -9.1170    5.1670  -16.1890 C   0  0  0  0  0  0  0  0  0  0  0  0
   -7.1500    5.1170  -19.3100 C   0  0  0  0  0  0  0  0  0  0  0  0
   -5.9100    5.8960  -19.3680 N   0  0  0  0  0  0  0  0  0  0  0  0
   -5.0860    5.6950  -18.1590 C   0  0  0  0  0  0  0  0  0  0  0  0
   -5.7950    6.1560  -16.9040 C   0  0  0  0  0  0  0  0  0  0  0  0
  2  1  1  0
  3  2  2  0
  4  3  1  0
  5  4  1  0
  6  2  1  0
  6  5  2  0
  7  3  1  0
  8  7  1  0
  9  8  1  0
 10  4  1  0
 10  9  1  0
M  END
$$$$
